<?xml version="1.0" encoding="ISO-8859-1"?>
<febio_spec version="4.0">
	<Module type="solid"/>
	<Code>
		<callback name="precice_callback"/>
	</Code>
	<Control>
		<analysis>DYNAMIC</analysis>
		<time_steps>300</time_steps>
		<step_size>0.1</step_size>
		<plot_zero_state>0</plot_zero_state>
		<plot_range>0,-1</plot_range>
		<plot_level>PLOT_MAJOR_ITRS</plot_level>
		<output_level>OUTPUT_MAJOR_ITRS</output_level>
		<plot_stride>1</plot_stride>
		<adaptor_re_solve>1</adaptor_re_solve>
		<time_stepper type="default">
			<max_retries>5</max_retries>
			<opt_iter>11</opt_iter>
			<dtmin>0</dtmin>
			<dtmax>0.1</dtmax>
			<aggressiveness>0</aggressiveness>
			<cutback>0.5</cutback>
			<dtforce>0</dtforce>
		</time_stepper>
		<solver type="solid">
			<symmetric_stiffness>symmetric</symmetric_stiffness>
			<equation_scheme>staggered</equation_scheme>
			<equation_order>default</equation_order>
			<optimize_bw>0</optimize_bw>
			<lstol>0.9</lstol>
			<lsmin>0.01</lsmin>
			<lsiter>5</lsiter>
			<max_refs>15</max_refs>
			<check_zero_diagonal>0</check_zero_diagonal>
			<zero_diagonal_tol>0</zero_diagonal_tol>
			<force_partition>0</force_partition>
			<reform_each_time_step>1</reform_each_time_step>
			<reform_augment>0</reform_augment>
			<diverge_reform>1</diverge_reform>
			<min_residual>1e-20</min_residual>
			<max_residual>0</max_residual>
			<dtol>0.001</dtol>
			<etol>0.01</etol>
			<rtol>0</rtol>
			<rhoi>-2</rhoi>
			<alpha>1</alpha>
			<beta>0.25</beta>
			<gamma>0.5</gamma>
			<logSolve>0</logSolve>
			<arc_length>0</arc_length>
			<arc_length_scale>0</arc_length_scale>
			<qn_method type="BFGS">
				<max_ups>10</max_ups>
				<max_buffer_size>0</max_buffer_size>
				<cycle_buffer>1</cycle_buffer>
				<cmax>100000</cmax>
			</qn_method>
		</solver>
	</Control>
	<Globals>
		<Constants>
			<T>0</T>
			<P>0</P>
			<R>8.31446</R>
			<Fc>96485.3</Fc>
		</Constants>
	</Globals>
	<Material>
		<material id="1" name="Material2" type="DiHuMaterial">
			<density>10</density>
			<k>1000</k>
			<pressure_model>default</pressure_model>
			<c1>3.176e-10</c1>
			<c2>1.813</c2>
			<c3>0</c3>
			<c4>1</c4>
			<c5>0.01075</c5>
			<lam_max>1</lam_max>
			<fiber type="vector">
				<vector>0,0,1</vector>
			</fiber>
			<active_contraction type="DiHuContraction">
				<pmax>7.3</pmax>
				<lam_opt>1.2</lam_opt>
				<enable_force_length_relation>1</enable_force_length_relation>
			</active_contraction>
		</material>
	</Material>
	<Mesh>
		<Nodes name="biceps_poisson.stl">
			<node id="1">8.842309,15.4030018,-56.2802582</node>
			<node id="2">8.73859978,15.4030018,-56.3109055</node>
			<node id="3">8.73859978,15.4820938,-56.2802582</node>
			<node id="4">8.73859978,14.9911823,-56.2802582</node>
			<node id="5">8.73859978,15.1485682,-56.3098297</node>
			<node id="6">8.9221077,15.1485682,-56.2802582</node>
			<node id="7">9.29567146,14.3852692,-56.2802582</node>
			<node id="8">9.24746609,14.3852692,-56.3067627</node>
			<node id="9">9.24746609,14.5862532,-56.2802582</node>
			<node id="10">8.4841671,14.4463186,-56.2802582</node>
			<node id="11">8.4841671,14.3852692,-56.2810593</node>
			<node id="12">8.47754765,14.3852692,-56.2802582</node>
			<node id="13">9.24746609,13.9769192,-56.2802582</node>
			<node id="14">9.24746609,14.1308355,-56.3045807</node>
			<node id="15">9.30204201,14.1308355,-56.2802582</node>
			<node id="16">8.32651424,15.1485682,-56.2802582</node>
			<node id="17">8.4841671,15.1485682,-56.2899513</node>
			<node id="18">8.4841671,15.0232582,-56.2802582</node>
			<node id="19">7.466434,15.6574345,-56.3346901</node>
			<node id="20">7.21200085,15.4030018,-56.3658905</node>
<!-- ... 2608 like lines cut -->
		</Nodes>
		<Elements type="tet4" name="MusclePart">
			<elem id="1">1248,1309,1964,2515</elem>
			<elem id="2">1890,1769,2270,2547</elem>
			<elem id="3">1123,1147,1087,2436</elem>
			<elem id="4">1828,156,2125,2155</elem>
			<elem id="5">313,314,271,2391</elem>
			<elem id="6">1136,1211,1199,2436</elem>
			<elem id="7">982,976,1750,2548</elem>
			<elem id="8">130,131,2041,2480</elem>
			<elem id="9">2301,2230,2347,2519</elem>
			<elem id="10">1966,326,2100,2397</elem>
			<elem id="11">1009,1012,2218,2411</elem>
			<elem id="12">929,2038,2138,2482</elem>
			<elem id="13">1211,1884,2301,2479</elem>
			<elem id="14">1868,641,1919,2373</elem>
			<elem id="15">559,560,1807,2075</elem>
			<elem id="16">2287,426,2413,2502</elem>
			<elem id="17">1040,1039,1941,2257</elem>
			<elem id="18">690,1756,1991,2179</elem>
			<elem id="19">1738,1254,1896,2195</elem>
			<elem id="20">1637,1629,1930,2315</elem>
<!-- ... 11240 like lines cut -->
		</Elements>
		<Surface name="ZeroDisplacement1">
			<tri3 id="1">1581,1605,1586</tri3>
			<tri3 id="2">1532,1605,1581</tri3>
			<tri3 id="3">1572,1571,1525</tri3>
			<tri3 id="4">1596,1610,1595</tri3>
			<tri3 id="5">1604,1568,1566</tri3>
			<tri3 id="6">1535,1541,1579</tri3>
			<tri3 id="7">1608,1550,1568</tri3>
			<tri3 id="8">1610,1596,1611</tri3>
			<tri3 id="9">1578,1573,1574</tri3>
			<tri3 id="10">1549,1608,1618</tri3>
			<tri3 id="11">1585,1588,1592</tri3>
			<tri3 id="12">1580,1588,1577</tri3>
			<tri3 id="13">1559,1602,1545</tri3>
			<tri3 id="14">1613,1610,1611</tri3>
			<tri3 id="15">1599,1597,1587</tri3>
			<tri3 id="16">1571,1535,1579</tri3>
			<tri3 id="17">1589,1607,1599</tri3>
			<tri3 id="18">1618,1612,1619</tri3>
			<tri3 id="19">1611,1614,1613</tri3>
			<tri3 id="20">1586,1589,1584</tri3>
<!-- ... 111 like lines cut -->
		</Surface>
	</Mesh>
	<MeshDomains>
		<SolidDomain name="MusclePart" mat="Material2"/>
	</MeshDomains>
	<Boundary>
		<bc name="ZeroDisplacement1" node_set="@surface:ZeroDisplacement1" type="zero displacement">
			<x_dof>1</x_dof>
			<y_dof>1</y_dof>
			<z_dof>1</z_dof>
		</bc>
	</Boundary>
	<Output>
		<plotfile type="febio">
			<var type="displacement"/>
			<var type="stress"/>
			<var type="relative volume"/>
		</plotfile>
	</Output>
</febio_spec>
