<?xml version="1.0" encoding="ISO-8859-1"?>
<febio_spec version="4.0">
	<Module type="solid"/>
	<Code>
		<callback name="precice_callback"/>
	</Code>
	<Control>
		<analysis>DYNAMIC</analysis>
		<time_steps>300</time_steps>
		<step_size>0.1</step_size>
		<plot_zero_state>0</plot_zero_state>
		<plot_range>0,-1</plot_range>
		<plot_level>PLOT_MAJOR_ITRS</plot_level>
		<output_level>OUTPUT_MAJOR_ITRS</output_level>
		<plot_stride>1</plot_stride>
		<adaptor_re_solve>1</adaptor_re_solve>
		<time_stepper type="default">
			<max_retries>5</max_retries>
			<opt_iter>11</opt_iter>
			<dtmin>0</dtmin>
			<dtmax>0.1</dtmax>
			<aggressiveness>0</aggressiveness>
			<cutback>0.5</cutback>
			<dtforce>0</dtforce>
		</time_stepper>
		<solver type="solid">
			<symmetric_stiffness>symmetric</symmetric_stiffness>
			<equation_scheme>staggered</equation_scheme>
			<equation_order>default</equation_order>
			<optimize_bw>0</optimize_bw>
			<lstol>0.9</lstol>
			<lsmin>0.01</lsmin>
			<lsiter>5</lsiter>
			<max_refs>15</max_refs>
			<check_zero_diagonal>0</check_zero_diagonal>
			<zero_diagonal_tol>0</zero_diagonal_tol>
			<force_partition>0</force_partition>
			<reform_each_time_step>1</reform_each_time_step>
			<reform_augment>0</reform_augment>
			<diverge_reform>1</diverge_reform>
			<min_residual>1e-20</min_residual>
			<max_residual>0</max_residual>
			<dtol>0.001</dtol>
			<etol>0.01</etol>
			<rtol>0</rtol>
			<rhoi>-2</rhoi>
			<alpha>1</alpha>
			<beta>0.25</beta>
			<gamma>0.5</gamma>
			<logSolve>0</logSolve>
			<arc_length>0</arc_length>
			<arc_length_scale>0</arc_length_scale>
			<qn_method type="BFGS">
				<max_ups>10</max_ups>
				<max_buffer_size>0</max_buffer_size>
				<cycle_buffer>1</cycle_buffer>
				<cmax>100000</cmax>
			</qn_method>
		</solver>
	</Control>
	<Globals>
		<Constants>
			<T>0</T>
			<P>0</P>
			<R>8.31446</R>
			<Fc>96485.3</Fc>
		</Constants>
	</Globals>
	<Material>
		<material id="1" name="Material2" type="DiHuMaterial">
			<density>10</density>
			<k>1000</k>
			<pressure_model>default</pressure_model>
			<c1>3.176e-10</c1>
			<c2>1.813</c2>
			<c3>0</c3>
			<c4>1</c4>
			<c5>0.01075</c5>
			<lam_max>1</lam_max>
			<fiber type="vector">
				<vector>0,0,1</vector>
			</fiber>
			<active_contraction type="DiHuContraction">
				<pmax>7.3</pmax>
				<lam_opt>1.2</lam_opt>
				<enable_force_length_relation>1</enable_force_length_relation>
			</active_contraction>
		</material>
	</Material>
	<Mesh>
		<Nodes name="biceps_blender_decimation.stl">
			<node id="1">7.22179556,14.2210083,-55.5315742</node>
			<node id="2">7.28546953,14.0544424,-55.1167908</node>
			<node id="3">6.86904049,14.5039816,-54.2748299</node>
			<node id="4">7.00990915,14.2197189,-53.5107079</node>
			<node id="5">7.28414583,13.8673353,-52.4585991</node>
			<node id="6">6.7444644,14.4842253,-52.8672752</node>
			<node id="7">6.74576378,14.4238148,-52.0591393</node>
			<node id="8">7.15466928,13.9640179,-51.8713226</node>
			<node id="9">6.72364998,14.4581461,-51.6298523</node>
			<node id="10">7.14999771,14.054285,-50.6816788</node>
			<node id="11">6.72635365,14.5230618,-50.9963684</node>
			<node id="12">7.19936085,14.1013489,-49.9362068</node>
			<node id="13">6.95923615,14.3871269,-49.9105682</node>
			<node id="14">6.67033815,15.7420464,-55.7460556</node>
			<node id="15">6.59957075,15.4768829,-55.4429245</node>
			<node id="16">6.57293463,15.7740717,-55.4411392</node>
			<node id="17">6.91486025,15.1598845,-56.0953712</node>
			<node id="18">6.87382793,14.9069748,-55.8471947</node>
			<node id="19">6.78306103,15.1677189,-55.8918915</node>
			<node id="20">6.64832592,15.2707644,-55.4384499</node>
<!-- ... 1495 like lines cut -->
		</Nodes>
		<Elements type="tet4" name="MusclePart">
			<elem id="1">1086,680,1094,1228</elem>
			<elem id="2">1248,1220,1383,1490</elem>
			<elem id="3">572,574,571,1419</elem>
			<elem id="4">878,1219,1224,879</elem>
			<elem id="5">1100,1105,1101,1121</elem>
			<elem id="6">941,947,939,1223</elem>
			<elem id="7">222,190,1390,186</elem>
			<elem id="8">413,415,1383,1486</elem>
			<elem id="9">1163,448,1327,1492</elem>
			<elem id="10">532,535,1327,1469</elem>
			<elem id="11">1172,1184,1186,1201</elem>
			<elem id="12">482,491,492,493</elem>
			<elem id="13">558,554,555,1468</elem>
			<elem id="14">1268,1119,1321,1367</elem>
			<elem id="15">534,532,131,1469</elem>
			<elem id="16">305,274,1239,1301</elem>
			<elem id="17">1023,1375,1018,1251</elem>
			<elem id="18">1349,1366,1354,1505</elem>
			<elem id="19">1187,1259,1361,1397</elem>
			<elem id="20">1338,1300,1353,1384</elem>
<!-- ... 5658 like lines cut -->
		</Elements>
	</Mesh>
	<MeshDomains>
		<SolidDomain name="MusclePart" mat="Material2"/>
	</MeshDomains>
	<Output>
		<plotfile type="febio">
			<var type="displacement"/>
			<var type="stress"/>
			<var type="relative volume"/>
		</plotfile>
	</Output>
</febio_spec>
