<?xml version="1.0" encoding="ISO-8859-1"?>
<febio_spec version="4.0">
	<Module type="solid"/>
	<Code>
		<callback name="precice_callback"/>
	</Code>
	<Control>
		<analysis>DYNAMIC</analysis>
		<time_steps>300</time_steps>
		<step_size>0.1</step_size>
		<plot_zero_state>0</plot_zero_state>
		<plot_range>0,-1</plot_range>
		<plot_level>PLOT_MAJOR_ITRS</plot_level>
		<output_level>OUTPUT_MAJOR_ITRS</output_level>
		<plot_stride>1</plot_stride>
		<adaptor_re_solve>1</adaptor_re_solve>
		<time_stepper type="default">
			<max_retries>5</max_retries>
			<opt_iter>11</opt_iter>
			<dtmin>0</dtmin>
			<dtmax>0.1</dtmax>
			<aggressiveness>0</aggressiveness>
			<cutback>0.5</cutback>
			<dtforce>0</dtforce>
		</time_stepper>
		<solver type="solid">
			<symmetric_stiffness>symmetric</symmetric_stiffness>
			<equation_scheme>staggered</equation_scheme>
			<equation_order>default</equation_order>
			<optimize_bw>0</optimize_bw>
			<lstol>0.9</lstol>
			<lsmin>0.01</lsmin>
			<lsiter>5</lsiter>
			<max_refs>15</max_refs>
			<check_zero_diagonal>0</check_zero_diagonal>
			<zero_diagonal_tol>0</zero_diagonal_tol>
			<force_partition>0</force_partition>
			<reform_each_time_step>1</reform_each_time_step>
			<reform_augment>0</reform_augment>
			<diverge_reform>1</diverge_reform>
			<min_residual>1e-20</min_residual>
			<max_residual>0</max_residual>
			<dtol>0.001</dtol>
			<etol>0.01</etol>
			<rtol>0</rtol>
			<rhoi>-2</rhoi>
			<alpha>1</alpha>
			<beta>0.25</beta>
			<gamma>0.5</gamma>
			<logSolve>0</logSolve>
			<arc_length>0</arc_length>
			<arc_length_scale>0</arc_length_scale>
			<qn_method type="BFGS">
				<max_ups>10</max_ups>
				<max_buffer_size>0</max_buffer_size>
				<cycle_buffer>1</cycle_buffer>
				<cmax>100000</cmax>
			</qn_method>
		</solver>
	</Control>
	<Globals>
		<Constants>
			<T>0</T>
			<P>0</P>
			<R>8.31446</R>
			<Fc>96485.3</Fc>
		</Constants>
	</Globals>
	<Material>
		<material id="1" name="Material2" type="GammaMaterial">
			<density>10</density>
			<k>100</k>
			<pressure_model>default</pressure_model>
			<c1>3.176e-10</c1>
			<c2>1.813</c2>
			<c3>2.07</c3>
			<c4>61.44</c4>
			<c5>640.7</c5>
			<lam_max>1.03</lam_max>
			<fiber type="vector">
				<vector>0,0,1</vector>
			</fiber>
			<active_contraction type="GammaContraction">
				<pmax>7.3</pmax>
				<lam_opt>1.2</lam_opt>
				<enable_force_length_relation>1</enable_force_length_relation>
			</active_contraction>
		</material>
	</Material>
	<Mesh>
		<Nodes name="3D_mesh_u8x8x32">
			<node id="1">-1.41421,-1.41421,-7</node>
			<node id="2">-1.06066,-1.69558,-7</node>
			<node id="3">-0.707107,-1.87083,-7</node>
			<node id="4">-0.353553,-1.9685,-7</node>
			<node id="5">0,-2,-7</node>
			<node id="6">0.353553,-1.9685,-7</node>
			<node id="7">0.707107,-1.87083,-7</node>
			<node id="8">1.06066,-1.69558,-7</node>
			<node id="9">1.41421,-1.41421,-7</node>
			<node id="10">-1.69558,-1.06066,-7</node>
			<node id="11">-1.27169,-1.27169,-7</node>
			<node id="12">-0.847791,-1.40312,-7</node>
			<node id="13">-0.423896,-1.47638,-7</node>
			<node id="14">0,-1.5,-7</node>
			<node id="15">0.423896,-1.47638,-7</node>
			<node id="16">0.847791,-1.40312,-7</node>
			<node id="17">1.27169,-1.27169,-7</node>
			<node id="18">1.69558,-1.06066,-7</node>
			<node id="19">-1.87083,-0.707107,-7</node>
			<node id="20">-1.40312,-0.847791,-7</node>
<!-- ... 2653 like lines cut -->
		</Nodes>
		<Elements type="hex8" name="MusclePart">
			<elem id="1">1,2,11,10,82,83,92,91</elem>
			<elem id="2">2,3,12,11,83,84,93,92</elem>
			<elem id="3">3,4,13,12,84,85,94,93</elem>
			<elem id="4">4,5,14,13,85,86,95,94</elem>
			<elem id="5">5,6,15,14,86,87,96,95</elem>
			<elem id="6">6,7,16,15,87,88,97,96</elem>
			<elem id="7">7,8,17,16,88,89,98,97</elem>
			<elem id="8">8,9,18,17,89,90,99,98</elem>
			<elem id="9">10,11,20,19,91,92,101,100</elem>
			<elem id="10">11,12,21,20,92,93,102,101</elem>
			<elem id="11">12,13,22,21,93,94,103,102</elem>
			<elem id="12">13,14,23,22,94,95,104,103</elem>
			<elem id="13">14,15,24,23,95,96,105,104</elem>
			<elem id="14">15,16,25,24,96,97,106,105</elem>
			<elem id="15">16,17,26,25,97,98,107,106</elem>
			<elem id="16">17,18,27,26,98,99,108,107</elem>
			<elem id="17">19,20,29,28,100,101,110,109</elem>
			<elem id="18">20,21,30,29,101,102,111,110</elem>
			<elem id="19">21,22,31,30,102,103,112,111</elem>
			<elem id="20">22,23,32,31,103,104,113,112</elem>
<!-- ... 2028 like lines cut -->
		</Elements>
		<Surface name="ZeroDisplacement1">
			<quad4 id="1">10,11,2,1</quad4>
			<quad4 id="2">11,12,3,2</quad4>
			<quad4 id="3">12,13,4,3</quad4>
			<quad4 id="4">13,14,5,4</quad4>
			<quad4 id="5">14,15,6,5</quad4>
			<quad4 id="6">15,16,7,6</quad4>
			<quad4 id="7">16,17,8,7</quad4>
			<quad4 id="8">17,18,9,8</quad4>
			<quad4 id="9">19,20,11,10</quad4>
			<quad4 id="10">20,21,12,11</quad4>
			<quad4 id="11">21,22,13,12</quad4>
			<quad4 id="12">22,23,14,13</quad4>
			<quad4 id="13">23,24,15,14</quad4>
			<quad4 id="14">24,25,16,15</quad4>
			<quad4 id="15">25,26,17,16</quad4>
			<quad4 id="16">26,27,18,17</quad4>
			<quad4 id="17">28,29,20,19</quad4>
			<quad4 id="18">29,30,21,20</quad4>
			<quad4 id="19">30,31,22,21</quad4>
			<quad4 id="20">31,32,23,22</quad4>
<!-- ... 44 like lines cut -->
		</Surface>
	</Mesh>
	<MeshDomains>
		<SolidDomain name="MusclePart" mat="Material2"/>
	</MeshDomains>
	<Boundary>
		<bc name="ZeroDisplacement1" node_set="@surface:ZeroDisplacement1" type="zero displacement">
			<x_dof>1</x_dof>
			<y_dof>1</y_dof>
			<z_dof>1</z_dof>
		</bc>
	</Boundary>
	<Output>
		<plotfile type="febio">
			<var type="displacement"/>
			<var type="stress"/>
			<var type="relative volume"/>
		</plotfile>
	</Output>
</febio_spec>
