<?xml version="1.0" encoding="ISO-8859-1"?>
<febio_spec version="4.0">
	<Module type="solid"/>
	<Code>
		<callback name="precice_callback"/>
	</Code>
	<Control>
		<analysis>DYNAMIC</analysis>
		<time_steps>300</time_steps>
		<step_size>0.1</step_size>
		<plot_zero_state>0</plot_zero_state>
		<plot_range>0,-1</plot_range>
		<plot_level>PLOT_MAJOR_ITRS</plot_level>
		<output_level>OUTPUT_MAJOR_ITRS</output_level>
		<plot_stride>1</plot_stride>
		<adaptor_re_solve>1</adaptor_re_solve>
		<time_stepper type="default">
			<max_retries>5</max_retries>
			<opt_iter>11</opt_iter>
			<dtmin>0</dtmin>
			<dtmax>0.1</dtmax>
			<aggressiveness>0</aggressiveness>
			<cutback>0.5</cutback>
			<dtforce>0</dtforce>
		</time_stepper>
		<solver type="solid">
			<symmetric_stiffness>symmetric</symmetric_stiffness>
			<equation_scheme>staggered</equation_scheme>
			<equation_order>default</equation_order>
			<optimize_bw>0</optimize_bw>
			<lstol>0.9</lstol>
			<lsmin>0.01</lsmin>
			<lsiter>5</lsiter>
			<max_refs>15</max_refs>
			<check_zero_diagonal>0</check_zero_diagonal>
			<zero_diagonal_tol>0</zero_diagonal_tol>
			<force_partition>0</force_partition>
			<reform_each_time_step>1</reform_each_time_step>
			<reform_augment>0</reform_augment>
			<diverge_reform>1</diverge_reform>
			<min_residual>1e-20</min_residual>
			<max_residual>0</max_residual>
			<dtol>0.001</dtol>
			<etol>0.01</etol>
			<rtol>0</rtol>
			<rhoi>-2</rhoi>
			<alpha>1</alpha>
			<beta>0.25</beta>
			<gamma>0.5</gamma>
			<logSolve>0</logSolve>
			<arc_length>0</arc_length>
			<arc_length_scale>0</arc_length_scale>
			<qn_method type="BFGS">
				<max_ups>10</max_ups>
				<max_buffer_size>0</max_buffer_size>
				<cycle_buffer>1</cycle_buffer>
				<cmax>100000</cmax>
			</qn_method>
		</solver>
	</Control>
	<Globals>
		<Constants>
			<T>0</T>
			<P>0</P>
			<R>8.31446</R>
			<Fc>96485.3</Fc>
		</Constants>
	</Globals>
	<Material>
		<material id="1" name="Material2" type="GammaMaterial">
			<density>10</density>
			<k>100</k>
			<pressure_model>default</pressure_model>
			<c1>3.176e-10</c1>
			<c2>1.813</c2>
			<c3>2.07</c3>
			<c4>61.44</c4>
			<c5>640.7</c5>
			<lam_max>1.03</lam_max>
			<fiber type="vector">
				<vector>0,0,1</vector>
			</fiber>
			<active_contraction type="GammaContraction">
				<pmax>7.3</pmax>
				<lam_opt>1.2</lam_opt>
				<enable_force_length_relation>1</enable_force_length_relation>
			</active_contraction>
		</material>
	</Material>
	<Mesh>
		<Nodes name="3D_mesh_u16x16x64">
			<node id="1">-1.41421,-1.41421,-7</node>
			<node id="2">-1.23744,-1.57123,-7</node>
			<node id="3">-1.06066,-1.69558,-7</node>
			<node id="4">-0.883883,-1.79409,-7</node>
			<node id="5">-0.707107,-1.87083,-7</node>
			<node id="6">-0.53033,-1.92841,-7</node>
			<node id="7">-0.353553,-1.9685,-7</node>
			<node id="8">-0.176777,-1.99217,-7</node>
			<node id="9">0,-2,-7</node>
			<node id="10">0.176777,-1.99217,-7</node>
			<node id="11">0.353553,-1.9685,-7</node>
			<node id="12">0.53033,-1.92841,-7</node>
			<node id="13">0.707107,-1.87083,-7</node>
			<node id="14">0.883883,-1.79409,-7</node>
			<node id="15">1.06066,-1.69558,-7</node>
			<node id="16">1.23744,-1.57123,-7</node>
			<node id="17">1.41421,-1.41421,-7</node>
			<node id="18">-1.57123,-1.23744,-7</node>
			<node id="19">-1.37482,-1.37482,-7</node>
			<node id="20">-1.17842,-1.48363,-7</node>
<!-- ... 18765 like lines cut -->
		</Nodes>
		<Elements type="hex8" name="MusclePart">
			<elem id="1">1,2,19,18,290,291,308,307</elem>
			<elem id="2">2,3,20,19,291,292,309,308</elem>
			<elem id="3">3,4,21,20,292,293,310,309</elem>
			<elem id="4">4,5,22,21,293,294,311,310</elem>
			<elem id="5">5,6,23,22,294,295,312,311</elem>
			<elem id="6">6,7,24,23,295,296,313,312</elem>
			<elem id="7">7,8,25,24,296,297,314,313</elem>
			<elem id="8">8,9,26,25,297,298,315,314</elem>
			<elem id="9">9,10,27,26,298,299,316,315</elem>
			<elem id="10">10,11,28,27,299,300,317,316</elem>
			<elem id="11">11,12,29,28,300,301,318,317</elem>
			<elem id="12">12,13,30,29,301,302,319,318</elem>
			<elem id="13">13,14,31,30,302,303,320,319</elem>
			<elem id="14">14,15,32,31,303,304,321,320</elem>
			<elem id="15">15,16,33,32,304,305,322,321</elem>
			<elem id="16">16,17,34,33,305,306,323,322</elem>
			<elem id="17">18,19,36,35,307,308,325,324</elem>
			<elem id="18">19,20,37,36,308,309,326,325</elem>
			<elem id="19">20,21,38,37,309,310,327,326</elem>
			<elem id="20">21,22,39,38,310,311,328,327</elem>
<!-- ... 16364 like lines cut -->
		</Elements>
		<Surface name="ZeroDisplacement1">
			<quad4 id="1">18,19,2,1</quad4>
			<quad4 id="2">19,20,3,2</quad4>
			<quad4 id="3">20,21,4,3</quad4>
			<quad4 id="4">21,22,5,4</quad4>
			<quad4 id="5">22,23,6,5</quad4>
			<quad4 id="6">23,24,7,6</quad4>
			<quad4 id="7">24,25,8,7</quad4>
			<quad4 id="8">25,26,9,8</quad4>
			<quad4 id="9">26,27,10,9</quad4>
			<quad4 id="10">27,28,11,10</quad4>
			<quad4 id="11">28,29,12,11</quad4>
			<quad4 id="12">29,30,13,12</quad4>
			<quad4 id="13">30,31,14,13</quad4>
			<quad4 id="14">31,32,15,14</quad4>
			<quad4 id="15">32,33,16,15</quad4>
			<quad4 id="16">33,34,17,16</quad4>
			<quad4 id="17">35,36,19,18</quad4>
			<quad4 id="18">36,37,20,19</quad4>
			<quad4 id="19">37,38,21,20</quad4>
			<quad4 id="20">38,39,22,21</quad4>
<!-- ... 236 like lines cut -->
		</Surface>
	</Mesh>
	<MeshDomains>
		<SolidDomain name="MusclePart" mat="Material2"/>
	</MeshDomains>
	<Boundary>
		<bc name="ZeroDisplacement1" node_set="@surface:ZeroDisplacement1" type="zero displacement">
			<x_dof>1</x_dof>
			<y_dof>1</y_dof>
			<z_dof>1</z_dof>
		</bc>
	</Boundary>
	<Output>
		<plotfile type="febio">
			<var type="displacement"/>
			<var type="stress"/>
			<var type="relative volume"/>
		</plotfile>
	</Output>
</febio_spec>
