<?xml version="1.0" encoding="ISO-8859-1"?>
<febio_spec version="4.0">
	<Module type="solid"/>
	<Control>
		<analysis>DYNAMIC</analysis>
		<time_steps>300</time_steps>
		<step_size>0.1</step_size>
		<plot_zero_state>0</plot_zero_state>
		<plot_range>0,-1</plot_range>
		<plot_level>PLOT_MAJOR_ITRS</plot_level>
		<output_level>OUTPUT_MAJOR_ITRS</output_level>
		<plot_stride>1</plot_stride>
		<output_stride>1</output_stride>
		<adaptor_re_solve>1</adaptor_re_solve>
		<solver type="solid">
			<symmetric_stiffness>symmetric</symmetric_stiffness>
			<equation_scheme>staggered</equation_scheme>
			<equation_order>default</equation_order>
			<optimize_bw>0</optimize_bw>
			<lstol>0.9</lstol>
			<lsmin>0.01</lsmin>
			<lsiter>5</lsiter>
			<ls_check_jacobians>0</ls_check_jacobians>
			<max_refs>15</max_refs>
			<check_zero_diagonal>0</check_zero_diagonal>
			<zero_diagonal_tol>0</zero_diagonal_tol>
			<force_partition>0</force_partition>
			<reform_each_time_step>1</reform_each_time_step>
			<reform_augment>0</reform_augment>
			<diverge_reform>1</diverge_reform>
			<min_residual>1e-20</min_residual>
			<max_residual>0</max_residual>
			<dtol>0.001</dtol>
			<etol>0.01</etol>
			<rtol>0</rtol>
			<rhoi>-2</rhoi>
			<alpha>1</alpha>
			<beta>0.25</beta>
			<gamma>0.5</gamma>
			<logSolve>0</logSolve>
			<arc_length>0</arc_length>
			<arc_length_scale>0</arc_length_scale>
			<qn_method type="BFGS">
				<max_ups>10</max_ups>
				<max_buffer_size>0</max_buffer_size>
				<cycle_buffer>1</cycle_buffer>
				<cmax>100000</cmax>
			</qn_method>
		</solver>
	</Control>
	<Globals>
		<Constants>
			<T>0</T>
			<P>0</P>
			<R>8.31446</R>
			<Fc>96485.3</Fc>
		</Constants>
	</Globals>
	<Material>
		<material id="1" name="Muscle_Trans iso MR" type="trans iso Mooney-Rivlin">
			<density>1</density>
			<k>100</k>
			<pressure_model>default</pressure_model>
			<c1>13.85</c1>
			<c2>0</c2>
			<c3>2.07</c3>
			<c4>61.44</c4>
			<c5>640.7</c5>
			<lam_max>1.03</lam_max>
			<fiber type="vector">
				<vector>0,0,1</vector>
			</fiber>
			<active_contraction type="uncoupled active_contraction">
				<ascl lc="1">1</ascl>
				<Tmax>1</Tmax>
				<ca0>4.35</ca0>
				<camax>0</camax>
				<beta>4.75</beta>
				<l0>1.58</l0>
				<refl>2.04</refl>
			</active_contraction>
		</material>
	</Material>
	<Mesh>
		<Nodes name="TA_poisson.stl">
			<node id="1">19.6808929,27.2643661,32.4390793</node>
			<node id="2">19.7300415,27.2643661,32.4326477</node>
			<node id="3">19.7300415,27.247612,32.4390793</node>
			<node id="4">26.4322052,28.3814011,32.2294121</node>
			<node id="5">25.3151855,27.2643661,32.142231</node>
			<node id="6">25.3151855,28.3814011,32.0929031</node>
			<node id="7">20.8470612,27.2643661,32.3255539</node>
			<node id="8">20.8470612,26.9204636,32.4390793</node>
			<node id="9">17.9065247,30.6154556,32.4390793</node>
			<node id="10">18.6130066,29.498436,32.1686935</node>
			<node id="11">17.5178986,29.498436,32.4390793</node>
			<node id="12">18.6130066,30.6154556,32.240036</node>
			<node id="13">26.4322052,30.3116531,32.4390793</node>
			<node id="14">25.3151855,30.6154556,32.20718</node>
			<node id="15">26.2671356,30.6154556,32.4390793</node>
			<node id="16">23.0811157,29.498436,32.0217628</node>
			<node id="17">21.9640961,29.498436,32.0091934</node>
			<node id="18">21.9640961,30.6154556,32.0040627</node>
			<node id="19">18.6130066,31.555748,32.4390793</node>
			<node id="20">17.8117599,28.3814011,32.4390793</node>
<!-- ... 44577 like lines cut -->
		</Nodes>
		<Elements type="tet4" name="Part1">
			<elem id="1">15890,15671,36250,38972</elem>
			<elem id="2">36217,23182,36922,38861</elem>
			<elem id="3">1123,1124,41236,44240</elem>
			<elem id="4">10490,10434,10628,40886</elem>
			<elem id="5">39230,38093,40194,40440</elem>
			<elem id="6">831,877,35971,37022</elem>
			<elem id="7">15262,15112,15121,37782</elem>
			<elem id="8">5733,5632,5773,41289</elem>
			<elem id="9">18073,18017,33309,41105</elem>
			<elem id="10">6816,6983,7079,33944</elem>
			<elem id="11">3694,3695,27823,36979</elem>
			<elem id="12">16727,16575,28725,29807</elem>
			<elem id="13">11716,11715,31307,33490</elem>
			<elem id="14">4805,4863,38152,4752</elem>
			<elem id="15">1856,1857,1874,37855</elem>
			<elem id="16">8387,8391,39068,41372</elem>
			<elem id="17">26068,25900,29095,30224</elem>
			<elem id="18">29548,30643,31239,33624</elem>
			<elem id="19">27389,28201,32072,43474</elem>
			<elem id="20">22191,22194,22294,42267</elem>
<!-- ... 196936 like lines cut -->
		</Elements>
		<Surface name="ZeroDisplacement1">
			<tri3 id="1">6,55,25</tri3>
			<tri3 id="2">25,57,14</tri3>
			<tri3 id="3">23,17,16</tri3>
			<tri3 id="4">33,31,47</tri3>
			<tri3 id="5">37,14,57</tri3>
			<tri3 id="6">16,46,23</tri3>
			<tri3 id="7">18,16,17</tri3>
			<tri3 id="8">57,25,55</tri3>
			<tri3 id="9">29,32,31</tri3>
			<tri3 id="10">75,33,47</tri3>
			<tri3 id="11">30,31,32</tri3>
			<tri3 id="12">47,24,75</tri3>
			<tri3 id="13">30,26,18</tri3>
			<tri3 id="14">16,18,26</tri3>
			<tri3 id="15">55,26,57</tri3>
			<tri3 id="16">17,23,24</tri3>
			<tri3 id="17">57,38,37</tri3>
			<tri3 id="18">31,30,18</tri3>
			<tri3 id="19">17,31,18</tri3>
			<tri3 id="20">32,29,48</tri3>
<!-- ... 8 like lines cut -->
		</Surface>
	</Mesh>
	<MeshDomains>
		<SolidDomain name="Part1" mat="Muscle_Trans iso MR"/>
	</MeshDomains>
	<Boundary>
		<bc name="ZeroDisplacement1" node_set="@surface:ZeroDisplacement1" type="zero displacement">
			<x_dof>1</x_dof>
			<y_dof>1</y_dof>
			<z_dof>1</z_dof>
		</bc>
	</Boundary>
	<LoadData>
		<load_controller id="1" name="LC1" type="loadcurve">
			<interpolate>LINEAR</interpolate>
			<extend>CONSTANT</extend>
			<points>
				<pt>0,0</pt>
				<pt>10,1</pt>
				<pt>30,1</pt>
			</points>
		</load_controller>
	</LoadData>
	<Output>
		<plotfile type="febio">
			<var type="displacement"/>
			<var type="stress"/>
			<var type="relative volume"/>
		</plotfile>
	</Output>
</febio_spec>
