<?xml version="1.0" encoding="ISO-8859-1"?>
<febio_spec version="4.0">
	<Module type="solid"/>
	<Globals>
		<Constants>
			<T>0</T>
			<P>0</P>
			<R>8.31446</R>
			<Fc>96485.3</Fc>
		</Constants>
	</Globals>
	<Material>
		<material id="1" name="Muscle_MR" type="Mooney-Rivlin">
			<density>1</density>
			<k>2500</k>
			<pressure_model>default</pressure_model>
			<c1>13.85</c1>
			<c2>0</c2>
		</material>
	</Material>
	<Mesh>
		<Nodes name="cylinder_test.stl">
			<node id="1">-3.7912346,-3.25929815,5.93399983</node>
			<node id="2">-0.119403145,-0.0753385614,0</node>
			<node id="3">5.00027421,-0.0607694818,0</node>
			<node id="4">-3.36435223,-3.69805259,16.3047168</node>
			<node id="5">4.96642462,0.574775296,0</node>
			<node id="6">-3.43893673,-3.62921836,11.2548748</node>
			<node id="7">4.84763517,1.22321316,0</node>
			<node id="8">0.952691958,-4.90783649,18.3492712</node>
			<node id="9">4.64631395,1.84597926,0</node>
			<node id="10">-0.536411124,-2.9942001,20</node>
			<node id="11">4.33002553,2.49986014,0</node>
			<node id="12">3.96676683,3.04380703,0</node>
			<node id="13">-3.39901366,-3.66641625,6.0179113</node>
			<node id="14">3.53553391,3.53553391,0</node>
			<node id="15">-3.52688089,-3.54392477,1.16942378</node>
			<node id="16">3.04380703,3.96676683,0</node>
			<node id="17">2.5,4.33012724,0</node>
			<node id="18">2.7801517,4.15538362,14.5650678</node>
			<node id="19">1.9134171,4.61939764,0</node>
			<node id="20">4.85744623,1.18533228,5.27515627</node>
<!-- ... 47664 like lines cut -->
		</Nodes>
		<Elements type="tet10" name="Part1">
			<elem id="1">4808,3672,5632,5939,37914,37915,44807,44808,37916,47285</elem>
			<elem id="2">2912,3440,4690,5255,31470,36049,31471,31472,36050,44242</elem>
			<elem id="3">1485,1272,2733,4118,15788,15789,16894,16895,15790,29752</elem>
			<elem id="4">2301,2903,3149,5618,25108,31383,25109,25110,31384,33637</elem>
			<elem id="5">3065,2078,3560,4242,22394,22395,32881,32882,22396,37034</elem>
			<elem id="6">3258,2612,3803,4537,28579,28580,34579,34580,28581,38899</elem>
			<elem id="7">783,779,1989,4123,12520,12521,12547,12548,12522,21233</elem>
			<elem id="8">1827,2675,4195,5661,18909,29215,18910,18911,29216,41499</elem>
			<elem id="9">3948,4465,4962,5604,39935,43035,39936,39937,43036,45482</elem>
			<elem id="10">2094,2227,5324,2979,22619,24237,22620,22621,24238,32068</elem>
			<elem id="11">4344,2728,4647,4816,29702,29703,42382,42383,29704,44062</elem>
			<elem id="12">1084,1522,435,2641,14572,9738,9739,14573,17048,9740</elem>
			<elem id="13">1057,439,1122,4362,9770,9771,14414,14415,9772,14795</elem>
			<elem id="14">4527,3762,5610,5730,38609,38610,43440,43441,38611,47257</elem>
			<elem id="15">2816,1992,4844,6016,21271,21272,30538,30539,21273,44969</elem>
			<elem id="16">2770,3648,3822,4252,30091,37698,30092,30093,37699,39032</elem>
			<elem id="17">3716,1904,5220,5353,20023,20024,38249,38250,20025,46419</elem>
			<elem id="18">2612,3258,3382,4537,28579,34581,28582,28581,34580,35575</elem>
			<elem id="19">2128,3069,4116,5561,23059,32923,23060,23061,32924,41021</elem>
			<elem id="20">256,1282,975,2236,8229,13897,8230,8231,15855,13898</elem>
<!-- ... 33526 like lines cut -->
		</Elements>
		<Surface name="ZeroDisplacement1">
			<tri6 id="1">1630,487,1705,10175,10184,17578</tri6>
			<tri6 id="2">499,2,1563,6200,6196,10265</tri6>
			<tri6 id="3">531,533,1124,10527,10542,10522</tri6>
			<tri6 id="4">1467,1563,1274,16808,15804,15803</tri6>
			<tri6 id="5">533,536,888,10544,10566,10547</tri6>
			<tri6 id="6">1485,1272,227,15788,7957,7955</tri6>
			<tri6 id="7">536,537,1215,10569,10577,10567</tri6>
			<tri6 id="8">537,227,538,7948,7956,10578</tri6>
			<tri6 id="9">537,538,435,10578,9743,9748</tri6>
			<tri6 id="10">538,227,1654,7956,7958,10585</tri6>
			<tri6 id="11">540,346,541,9025,9028,10600</tri6>
			<tri6 id="12">541,346,542,9028,9022,10609</tri6>
			<tri6 id="13">654,541,1528,10610,10611,11559</tri6>
			<tri6 id="14">161,1722,543,7324,10624,7326</tri6>
			<tri6 id="15">541,542,1240,10609,10619,10612</tri6>
			<tri6 id="16">543,544,1253,10629,10640,10627</tri6>
			<tri6 id="17">1570,249,1146,8169,8163,14920</tri6>
			<tri6 id="18">822,1337,487,12842,10179,10180</tri6>
			<tri6 id="19">544,822,1420,10633,12845,10638</tri6>
			<tri6 id="20">1232,246,1683,8134,8143,15505</tri6>
<!-- ... 262 like lines cut -->
		</Surface>
		<Surface name="PrescribedDisplacement2">
			<tri6 id="1">728,726,1115,12118,12116,12136</tri6>
			<tri6 id="2">738,736,830,12200,12198,12218</tri6>
			<tri6 id="3">745,744,220,12276,7884,7881</tri6>
			<tri6 id="4">1641,1092,284,14615,8490,8491</tri6>
			<tri6 id="5">813,1712,364,12779,9181,9173</tri6>
			<tri6 id="6">726,728,1313,12118,12133,12121</tri6>
			<tri6 id="7">224,1115,1177,7926,14761,7925</tri6>
			<tri6 id="8">728,780,968,12140,12534,12135</tri6>
			<tri6 id="9">732,736,1356,12165,12203,12172</tri6>
			<tri6 id="10">736,738,1349,12200,12221,12202</tri6>
			<tri6 id="11">1211,222,1330,7905,7908,15375</tri6>
			<tri6 id="12">740,744,1327,12240,12278,12238</tri6>
			<tri6 id="13">744,745,474,12276,10065,10067</tri6>
			<tri6 id="14">745,1363,701,12281,11922,11921</tri6>
			<tri6 id="15">1363,220,602,7888,7889,11122</tri6>
			<tri6 id="16">1416,1625,1336,16576,16171,16173</tri6>
			<tri6 id="17">939,602,980,11127,11126,13673</tri6>
			<tri6 id="18">1416,757,1625,12361,12354,16576</tri6>
			<tri6 id="19">1115,1336,1401,14759,16176,14760</tri6>
			<tri6 id="20">669,213,364,7815,7818,9176</tri6>
<!-- ... 260 like lines cut -->
		</Surface>
	</Mesh>
	<MeshDomains>
		<SolidDomain name="Part1" mat="Muscle_MR"/>
	</MeshDomains>
	<Boundary>
		<bc name="ZeroDisplacement1" node_set="@surface:ZeroDisplacement1" type="zero displacement">
			<x_dof>1</x_dof>
			<y_dof>1</y_dof>
			<z_dof>1</z_dof>
		</bc>
	</Boundary>
	<Step>
		<step id="1" name="Step1">
			<Control>
				<analysis>STATIC</analysis>
				<time_steps>10</time_steps>
				<step_size>0.1</step_size>
				<plot_zero_state>0</plot_zero_state>
				<plot_range>0,-1</plot_range>
				<plot_level>PLOT_MAJOR_ITRS</plot_level>
				<output_level>OUTPUT_MAJOR_ITRS</output_level>
				<plot_stride>1</plot_stride>
				<output_stride>1</output_stride>
				<adaptor_re_solve>1</adaptor_re_solve>
				<time_stepper type="default">
					<max_retries>5</max_retries>
					<opt_iter>11</opt_iter>
					<dtmin>0</dtmin>
					<dtmax>0.1</dtmax>
					<aggressiveness>0</aggressiveness>
					<cutback>0.5</cutback>
					<dtforce>0</dtforce>
				</time_stepper>
				<solver type="solid">
					<symmetric_stiffness>preferred</symmetric_stiffness>
					<equation_scheme>staggered</equation_scheme>
					<equation_order>default</equation_order>
					<optimize_bw>0</optimize_bw>
					<lstol>0.9</lstol>
					<lsmin>0.01</lsmin>
					<lsiter>5</lsiter>
					<ls_check_jacobians>0</ls_check_jacobians>
					<max_refs>15</max_refs>
					<check_zero_diagonal>0</check_zero_diagonal>
					<zero_diagonal_tol>0</zero_diagonal_tol>
					<force_partition>0</force_partition>
					<reform_each_time_step>1</reform_each_time_step>
					<reform_augment>0</reform_augment>
					<diverge_reform>1</diverge_reform>
					<min_residual>1e-20</min_residual>
					<max_residual>0</max_residual>
					<dtol>0.001</dtol>
					<etol>0.01</etol>
					<rtol>0</rtol>
					<rhoi>-2</rhoi>
					<alpha>1</alpha>
					<beta>0.25</beta>
					<gamma>0.5</gamma>
					<logSolve>0</logSolve>
					<arc_length>0</arc_length>
					<arc_length_scale>0</arc_length_scale>
					<qn_method type="BFGS">
						<max_ups>10</max_ups>
						<max_buffer_size>0</max_buffer_size>
						<cycle_buffer>1</cycle_buffer>
						<cmax>100000</cmax>
					</qn_method>
				</solver>
			</Control>
			<Boundary>
				<bc name="PrescribedDisplacement2" node_set="@surface:PrescribedDisplacement2" type="prescribed displacement">
					<dof>z</dof>
					<value lc="1">5</value>
					<relative>0</relative>
				</bc>
			</Boundary>
		</step>
	</Step>
	<LoadData>
		<load_controller id="1" name="LC1" type="loadcurve">
			<interpolate>LINEAR</interpolate>
			<extend>CONSTANT</extend>
			<points>
				<pt>0,0</pt>
				<pt>1,1</pt>
			</points>
		</load_controller>
	</LoadData>
	<Output>
		<plotfile type="febio">
			<var type="displacement"/>
			<var type="stress"/>
			<var type="relative volume"/>
		</plotfile>
	</Output>
</febio_spec>
