<?xml version="1.0" encoding="ISO-8859-1"?>
<febio_spec version="4.0">
	<Module type="solid"/>
	<Control>
		<analysis>STATIC</analysis>
		<time_steps>30</time_steps>
		<step_size>0.1</step_size>
		<plot_zero_state>0</plot_zero_state>
		<plot_range>0,-1</plot_range>
		<plot_level>PLOT_MAJOR_ITRS</plot_level>
		<output_level>OUTPUT_MAJOR_ITRS</output_level>
		<plot_stride>1</plot_stride>
		<output_stride>1</output_stride>
		<adaptor_re_solve>1</adaptor_re_solve>
		<solver type="solid">
			<symmetric_stiffness>symmetric</symmetric_stiffness>
			<equation_scheme>staggered</equation_scheme>
			<equation_order>default</equation_order>
			<optimize_bw>0</optimize_bw>
			<lstol>0.9</lstol>
			<lsmin>0.01</lsmin>
			<lsiter>5</lsiter>
			<ls_check_jacobians>0</ls_check_jacobians>
			<max_refs>15</max_refs>
			<check_zero_diagonal>0</check_zero_diagonal>
			<zero_diagonal_tol>0</zero_diagonal_tol>
			<force_partition>0</force_partition>
			<reform_each_time_step>1</reform_each_time_step>
			<reform_augment>0</reform_augment>
			<diverge_reform>1</diverge_reform>
			<min_residual>1e-20</min_residual>
			<max_residual>0</max_residual>
			<dtol>0.001</dtol>
			<etol>0.01</etol>
			<rtol>0</rtol>
			<rhoi>-2</rhoi>
			<alpha>1</alpha>
			<beta>0.25</beta>
			<gamma>0.5</gamma>
			<logSolve>0</logSolve>
			<arc_length>0</arc_length>
			<arc_length_scale>0</arc_length_scale>
			<qn_method type="BFGS">
				<max_ups>10</max_ups>
				<max_buffer_size>0</max_buffer_size>
				<cycle_buffer>1</cycle_buffer>
				<cmax>100000</cmax>
			</qn_method>
		</solver>
	</Control>
	<Globals>
		<Constants>
			<T>0</T>
			<P>0</P>
			<R>0</R>
			<Fc>0</Fc>
		</Constants>
	</Globals>
	<Material>
		<material id="1" name="Material4" type="uncoupled prestrain elastic">
			<density>1</density>
			<k>100</k>
			<pressure_model>default</pressure_model>
			<elastic type="trans iso Mooney-Rivlin">
				<c1>13.85</c1>
				<c2>0</c2>
				<c3>2.07</c3>
				<c4>61.44</c4>
				<c5>640.7</c5>
				<lam_max>1.03</lam_max>
				<fiber type="vector">
					<vector>0,0,1</vector>
				</fiber>
				<active_contraction>
					<ascl lc="1">1</ascl>
					<Tmax>1</Tmax>
					<ca0>4.35</ca0>
					<camax>0</camax>
					<beta>4.75</beta>
					<l0>1.58</l0>
					<refl>2.04</refl>
				</active_contraction>
			</elastic>
			<prestrain type="in-situ stretch">
				<stretch type="map">pre_strain</stretch>
				<isochoric>1</isochoric>
			</prestrain>
		</material>
	</Material>
	<Mesh>
		<Nodes name="muscle_1.stl">
			<node id="1">-1.81074262,-0.905371308,-6.30000019</node>
			<node id="2">-1.78885436,-0.89442718,-7</node>
			<node id="3">-1.43151772,-1.43151772,-6.30000019</node>
			<node id="4">-1.41421354,-1.41421354,-7</node>
			<node id="5">-2.02447176,0,-6.30000019</node>
			<node id="6">-2,0,-7</node>
			<node id="7">-1.81074262,0.905371308,-6.30000019</node>
			<node id="8">-1.78885436,0.89442718,-7</node>
			<node id="9">-1.43151772,1.43151772,-6.30000019</node>
			<node id="10">-1.41421354,1.41421354,-7</node>
			<node id="11">-1.4817363,-1.4817363,-5.5999999</node>
			<node id="12">-1.8742646,-0.937132299,-5.5999999</node>
			<node id="13">-2.09549141,0,-5.5999999</node>
			<node id="14">-1.8742646,0.937132299,-5.5999999</node>
			<node id="15">-1.4817363,1.4817363,-5.5999999</node>
			<node id="16">-1.97320247,-0.986601233,-4.9000001</node>
			<node id="17">-1.55995345,-1.55995345,-4.9000001</node>
			<node id="18">-2.20610738,0,-4.9000001</node>
			<node id="19">-1.97320247,0.986601233,-4.9000001</node>
			<node id="20">-1.55995345,1.55995345,-4.9000001</node>
<!-- ... 614 like lines cut -->
		</Nodes>
		<Elements type="tet4" name="Part1">
			<elem id="1">248,269,449,522</elem>
			<elem id="2">247,269,449,248</elem>
			<elem id="3">379,565,330,607</elem>
			<elem id="4">470,115,114,113</elem>
			<elem id="5">522,269,449,485</elem>
			<elem id="6">509,496,527,559</elem>
			<elem id="7">350,389,375,351</elem>
			<elem id="8">374,403,379,372</elem>
			<elem id="9">471,356,466,150</elem>
			<elem id="10">421,543,519,558</elem>
			<elem id="11">398,375,403,372</elem>
			<elem id="12">115,470,114,117</elem>
			<elem id="13">153,497,154,175</elem>
			<elem id="14">381,361,357,359</elem>
			<elem id="15">356,471,466,358</elem>
			<elem id="16">473,470,114,113</elem>
			<elem id="17">607,583,330,634</elem>
			<elem id="18">381,357,392,359</elem>
			<elem id="19">526,583,586,607</elem>
			<elem id="20">496,358,527,559</elem>
<!-- ... 2496 like lines cut -->
		</Elements>
		<Surface name="ZeroDisplacement1">
			<tri3 id="1">341,339,338</tri3>
			<tri3 id="2">4,337,212</tri3>
			<tri3 id="3">344,345,342</tri3>
			<tri3 id="4">341,344,342</tri3>
			<tri3 id="5">2,6,340</tri3>
			<tri3 id="6">2,337,4</tri3>
			<tri3 id="7">2,340,337</tri3>
			<tri3 id="8">342,339,341</tri3>
			<tri3 id="9">6,8,340</tri3>
			<tri3 id="10">8,10,343</tri3>
			<tri3 id="11">8,343,340</tri3>
			<tri3 id="12">10,275,343</tri3>
			<tri3 id="13">109,254,339</tri3>
			<tri3 id="14">108,109,339</tri3>
			<tri3 id="15">108,342,149</tri3>
			<tri3 id="16">108,339,342</tri3>
			<tri3 id="17">170,149,342</tri3>
			<tri3 id="18">340,343,341</tri3>
			<tri3 id="19">170,345,191</tri3>
			<tri3 id="20">170,342,345</tri3>
<!-- ... 12 like lines cut -->
		</Surface>
		<PartList name="pre_strain">Part1</PartList>
	</Mesh>
	<MeshDomains>
		<SolidDomain name="Part1" mat="Material4"/>
	</MeshDomains>
	<MeshData>
		<ElementData name="pre_strain" elem_set="Part1">
			<e lid="1">1.05199</e>
			<e lid="2">1.045603</e>
			<e lid="3">1.054002</e>
			<e lid="4">1.046874</e>
			<e lid="5">1.052788</e>
			<e lid="6">1.056142</e>
			<e lid="7">1.054691</e>
			<e lid="8">1.055452</e>
			<e lid="9">1.050384</e>
			<e lid="10">1.04044</e>
			<e lid="11">1.050952</e>
			<e lid="12">1.041301</e>
			<e lid="13">1.03781</e>
			<e lid="14">1.052545</e>
			<e lid="15">1.056167</e>
			<e lid="16">1.04828</e>
			<e lid="17">1.064266</e>
			<e lid="18">1.051846</e>
			<e lid="19">1.051367</e>
			<e lid="20">1.055825</e>
<!-- ... 2496 like lines cut -->
		</ElementData>
	</MeshData>
	<Boundary>
		<bc name="ZeroDisplacement1" node_set="@surface:ZeroDisplacement1" type="zero displacement">
			<x_dof>1</x_dof>
			<y_dof>1</y_dof>
			<z_dof>1</z_dof>
		</bc>
	</Boundary>
	<LoadData>
		<load_controller id="1" name="LC2" type="loadcurve">
			<interpolate>LINEAR</interpolate>
			<extend>CONSTANT</extend>
			<points>
				<pt>0,0</pt>
				<pt>1,1</pt>
			</points>
		</load_controller>
	</LoadData>
	<Output>
		<plotfile type="febio">
			<var type="displacement"/>
			<var type="stress"/>
			<var type="relative volume"/>
			<var type="fiber stretch"/>
		</plotfile>
	</Output>
</febio_spec>
