<?xml version="1.0" encoding="ISO-8859-1"?>
<febio_spec version="4.0">
	<Module type="solid"/>
	<Code>
		<callback name="precice_callback"/>
	</Code>
	<Control>
		<analysis>DYNAMIC</analysis>
		<time_steps>300</time_steps>
		<step_size>0.1</step_size>
		<plot_zero_state>0</plot_zero_state>
		<plot_range>0,-1</plot_range>
		<plot_level>PLOT_MAJOR_ITRS</plot_level>
		<output_level>OUTPUT_MAJOR_ITRS</output_level>
		<plot_stride>1</plot_stride>
		<adaptor_re_solve>1</adaptor_re_solve>
		<time_stepper type="default">
			<max_retries>5</max_retries>
			<opt_iter>11</opt_iter>
			<dtmin>0</dtmin>
			<dtmax>0.1</dtmax>
			<aggressiveness>0</aggressiveness>
			<cutback>0.5</cutback>
			<dtforce>0</dtforce>
		</time_stepper>
		<solver type="solid">
			<symmetric_stiffness>symmetric</symmetric_stiffness>
			<equation_scheme>staggered</equation_scheme>
			<equation_order>default</equation_order>
			<optimize_bw>0</optimize_bw>
			<lstol>0.9</lstol>
			<lsmin>0.01</lsmin>
			<lsiter>5</lsiter>
			<max_refs>15</max_refs>
			<check_zero_diagonal>0</check_zero_diagonal>
			<zero_diagonal_tol>0</zero_diagonal_tol>
			<force_partition>0</force_partition>
			<reform_each_time_step>1</reform_each_time_step>
			<reform_augment>0</reform_augment>
			<diverge_reform>1</diverge_reform>
			<min_residual>1e-20</min_residual>
			<max_residual>0</max_residual>
			<dtol>0.001</dtol>
			<etol>0.01</etol>
			<rtol>0</rtol>
			<rhoi>-2</rhoi>
			<alpha>1</alpha>
			<beta>0.25</beta>
			<gamma>0.5</gamma>
			<logSolve>0</logSolve>
			<arc_length>0</arc_length>
			<arc_length_scale>0</arc_length_scale>
			<qn_method type="BFGS">
				<max_ups>10</max_ups>
				<max_buffer_size>0</max_buffer_size>
				<cycle_buffer>1</cycle_buffer>
				<cmax>100000</cmax>
			</qn_method>
		</solver>
	</Control>
	<Globals>
		<Constants>
			<T>0</T>
			<P>0</P>
			<R>8.31446</R>
			<Fc>96485.3</Fc>
		</Constants>
	</Globals>
	<Material>
		<material id="1" name="Material2" type="DiHuMaterial">
			<density>10</density>
			<k>1000</k>
			<pressure_model>default</pressure_model>
			<c1>3.176e-10</c1>
			<c2>1.813</c2>
			<c3>0</c3>
			<c4>1</c4>
			<c5>0.01075</c5>
			<lam_max>1</lam_max>
			<fiber type="vector">
				<vector>0,0,1</vector>
			</fiber>
			<active_contraction type="DiHuContraction">
				<pmax>7.3</pmax>
				<lam_opt>1.2</lam_opt>
				<enable_force_length_relation>1</enable_force_length_relation>
			</active_contraction>
		</material>
	</Material>
	<Mesh>
		<Nodes name="Object2">
			<node id="1">-1.81074262,-0.905371308,-6.30000019</node>
			<node id="2">-1.78885436,-0.89442718,-7</node>
			<node id="3">-1.43151772,-1.43151772,-6.30000019</node>
			<node id="4">-1.41421354,-1.41421354,-7</node>
			<node id="5">-2.02447176,0,-6.30000019</node>
			<node id="6">-2,0,-7</node>
			<node id="7">-1.81074262,0.905371308,-6.30000019</node>
			<node id="8">-1.78885436,0.89442718,-7</node>
			<node id="9">-1.43151772,1.43151772,-6.30000019</node>
			<node id="10">-1.41421354,1.41421354,-7</node>
			<node id="11">-1.4817363,-1.4817363,-5.5999999</node>
			<node id="12">-1.8742646,-0.937132299,-5.5999999</node>
			<node id="13">-2.09549141,0,-5.5999999</node>
			<node id="14">-1.8742646,0.937132299,-5.5999999</node>
			<node id="15">-1.4817363,1.4817363,-5.5999999</node>
			<node id="16">-1.97320247,-0.986601233,-4.9000001</node>
			<node id="17">-1.55995345,-1.55995345,-4.9000001</node>
			<node id="18">-2.20610738,0,-4.9000001</node>
			<node id="19">-1.97320247,0.986601233,-4.9000001</node>
			<node id="20">-1.55995345,1.55995345,-4.9000001</node>
<!-- ... 614 like lines cut -->
		</Nodes>
		<Elements type="tet4" name="MusclePart">
			<elem id="1">248,269,449,522</elem>
			<elem id="2">247,269,449,248</elem>
			<elem id="3">379,565,330,607</elem>
			<elem id="4">470,115,114,113</elem>
			<elem id="5">522,269,449,485</elem>
			<elem id="6">509,496,527,559</elem>
			<elem id="7">350,389,375,351</elem>
			<elem id="8">374,403,379,372</elem>
			<elem id="9">471,356,466,150</elem>
			<elem id="10">421,543,519,558</elem>
			<elem id="11">398,375,403,372</elem>
			<elem id="12">115,470,114,117</elem>
			<elem id="13">153,497,154,175</elem>
			<elem id="14">381,361,357,359</elem>
			<elem id="15">356,471,466,358</elem>
			<elem id="16">473,470,114,113</elem>
			<elem id="17">607,583,330,634</elem>
			<elem id="18">381,357,392,359</elem>
			<elem id="19">526,583,586,607</elem>
			<elem id="20">496,358,527,559</elem>
<!-- ... 2496 like lines cut -->
		</Elements>
	</Mesh>
	<MeshDomains>
		<SolidDomain name="MusclePart" mat="Material2"/>
	</MeshDomains>
	<Output>
		<plotfile type="febio">
			<var type="displacement"/>
			<var type="stress"/>
			<var type="relative volume"/>
		</plotfile>
	</Output>
</febio_spec>
