<?xml version="1.0" encoding="ISO-8859-1"?>
<febio_spec version="4.0">
	<Module type="solid"/>
	<Code>
		<callback name="precice_callback"/>
	</Code>
	<Control>
		<analysis>DYNAMIC</analysis>
		<time_steps>300</time_steps>
		<step_size>0.1</step_size>
		<plot_zero_state>0</plot_zero_state>
		<plot_range>0,-1</plot_range>
		<plot_level>PLOT_MAJOR_ITRS</plot_level>
		<output_level>OUTPUT_MAJOR_ITRS</output_level>
		<plot_stride>1</plot_stride>
		<adaptor_re_solve>1</adaptor_re_solve>
		<time_stepper type="default">
			<max_retries>5</max_retries>
			<opt_iter>11</opt_iter>
			<dtmin>0</dtmin>
			<dtmax>0.1</dtmax>
			<aggressiveness>0</aggressiveness>
			<cutback>0.5</cutback>
			<dtforce>0</dtforce>
		</time_stepper>
		<solver type="solid">
			<symmetric_stiffness>symmetric</symmetric_stiffness>
			<equation_scheme>staggered</equation_scheme>
			<equation_order>default</equation_order>
			<optimize_bw>0</optimize_bw>
			<lstol>0.9</lstol>
			<lsmin>0.01</lsmin>
			<lsiter>5</lsiter>
			<max_refs>15</max_refs>
			<check_zero_diagonal>0</check_zero_diagonal>
			<zero_diagonal_tol>0</zero_diagonal_tol>
			<force_partition>0</force_partition>
			<reform_each_time_step>1</reform_each_time_step>
			<reform_augment>0</reform_augment>
			<diverge_reform>1</diverge_reform>
			<min_residual>1e-20</min_residual>
			<max_residual>0</max_residual>
			<dtol>0.001</dtol>
			<etol>0.01</etol>
			<rtol>0</rtol>
			<rhoi>-2</rhoi>
			<alpha>1</alpha>
			<beta>0.25</beta>
			<gamma>0.5</gamma>
			<logSolve>0</logSolve>
			<arc_length>0</arc_length>
			<arc_length_scale>0</arc_length_scale>
			<qn_method type="BFGS">
				<max_ups>10</max_ups>
				<max_buffer_size>0</max_buffer_size>
				<cycle_buffer>1</cycle_buffer>
				<cmax>100000</cmax>
			</qn_method>
		</solver>
	</Control>
	<Globals>
		<Constants>
			<T>0</T>
			<P>0</P>
			<R>8.31446</R>
			<Fc>96485.3</Fc>
		</Constants>
	</Globals>
	<Material>
		<material id="1" name="Material2" type="DiHuMaterial">
			<density>10</density>
			<k>1000</k>
			<pressure_model>default</pressure_model>
			<c1>3.176e-10</c1>
			<c2>1.813</c2>
			<c3>0</c3>
			<c4>1</c4>
			<c5>0.01075</c5>
			<lam_max>1</lam_max>
			<fiber type="vector">
				<vector>0,0,1</vector>
			</fiber>
			<active_contraction type="DiHuContraction">
				<pmax>7.3</pmax>
				<lam_opt>1.2</lam_opt>
				<enable_force_length_relation>1</enable_force_length_relation>
			</active_contraction>
		</material>
	</Material>
	<Mesh>
		<Nodes name="Object1">
			<node id="1">26.5526,24.5316,32.8378</node>
			<node id="2">26.3534,23.903,33.5801</node>
			<node id="3">25.7556,24.3536,33.1553</node>
			<node id="4">27.5644,24.4383,32.8162</node>
			<node id="5">27.2353,23.8996,33.3783</node>
			<node id="6">28.3445,24.4229,32.8872</node>
			<node id="7">28.0628,23.9551,33.256</node>
			<node id="8">28.8286,24.4096,33.0822</node>
			<node id="9">28.6085,24.0809,33.1956</node>
			<node id="10">28.9392,24.1856,33.4137</node>
			<node id="11">23.5427,25.4892,32.8032</node>
			<node id="12">23.3039,24.8401,33.5747</node>
			<node id="13">22.7431,25.3294,33.1407</node>
			<node id="14">24.5948,25.3071,32.713</node>
			<node id="15">24.1543,24.7269,33.3675</node>
			<node id="16">25.6397,25.128,32.6351</node>
			<node id="17">25.022,24.5576,33.228</node>
			<node id="18">26.4977,25.3508,32.4258</node>
			<node id="19">27.2501,25.201,32.4888</node>
			<node id="20">28.0916,25.1153,32.6431</node>
<!-- ... 15970 like lines cut -->
		</Nodes>
		<Elements name="Part1" type="tri3">
			<elem id="1">1,2,3</elem>
			<elem id="2">1,4,5</elem>
			<elem id="3">2,1,5</elem>
			<elem id="4">4,6,7</elem>
			<elem id="5">5,4,7</elem>
			<elem id="6">6,8,9</elem>
			<elem id="7">7,6,9</elem>
			<elem id="8">9,8,10</elem>
			<elem id="9">11,12,13</elem>
			<elem id="10">11,14,15</elem>
			<elem id="11">12,11,15</elem>
			<elem id="12">14,16,17</elem>
			<elem id="13">15,14,17</elem>
			<elem id="14">3,17,16</elem>
			<elem id="15">3,16,1</elem>
			<elem id="16">1,16,18</elem>
			<elem id="17">4,1,19</elem>
			<elem id="18">19,1,18</elem>
			<elem id="19">6,4,20</elem>
			<elem id="20">20,4,19</elem>
<!-- ... 31933 like lines cut -->
		</Elements>
	</Mesh>
	<MeshDomains>
		<SolidDomain name="MusclePart" mat="Material2"/>
	</MeshDomains>
	<Output>
		<plotfile type="febio">
			<var type="displacement"/>
			<var type="stress"/>
			<var type="relative volume"/>
		</plotfile>
	</Output>
</febio_spec>
