<?xml version="1.0" encoding="ISO-8859-1"?>
<febio_spec version="4.0">
	<Module type="solid"/>
	<Code>
		<callback name="precice_callback"/>
	</Code>
	<Control>
		<analysis>DYNAMIC</analysis>
		<time_steps>300</time_steps>
		<step_size>0.1</step_size>
		<plot_zero_state>0</plot_zero_state>
		<plot_range>0,-1</plot_range>
		<plot_level>PLOT_MAJOR_ITRS</plot_level>
		<output_level>OUTPUT_MAJOR_ITRS</output_level>
		<plot_stride>1</plot_stride>
		<adaptor_re_solve>1</adaptor_re_solve>
		<time_stepper type="default">
			<max_retries>5</max_retries>
			<opt_iter>11</opt_iter>
			<dtmin>0</dtmin>
			<dtmax>0.1</dtmax>
			<aggressiveness>0</aggressiveness>
			<cutback>0.5</cutback>
			<dtforce>0</dtforce>
		</time_stepper>
		<solver type="solid">
			<symmetric_stiffness>symmetric</symmetric_stiffness>
			<equation_scheme>staggered</equation_scheme>
			<equation_order>default</equation_order>
			<optimize_bw>0</optimize_bw>
			<lstol>0.9</lstol>
			<lsmin>0.01</lsmin>
			<lsiter>5</lsiter>
			<max_refs>15</max_refs>
			<check_zero_diagonal>0</check_zero_diagonal>
			<zero_diagonal_tol>0</zero_diagonal_tol>
			<force_partition>0</force_partition>
			<reform_each_time_step>1</reform_each_time_step>
			<reform_augment>0</reform_augment>
			<diverge_reform>1</diverge_reform>
			<min_residual>1e-20</min_residual>
			<max_residual>0</max_residual>
			<dtol>0.001</dtol>
			<etol>0.01</etol>
			<rtol>0</rtol>
			<rhoi>-2</rhoi>
			<alpha>1</alpha>
			<beta>0.25</beta>
			<gamma>0.5</gamma>
			<logSolve>0</logSolve>
			<arc_length>0</arc_length>
			<arc_length_scale>0</arc_length_scale>
			<qn_method type="BFGS">
				<max_ups>10</max_ups>
				<max_buffer_size>0</max_buffer_size>
				<cycle_buffer>1</cycle_buffer>
				<cmax>100000</cmax>
			</qn_method>
		</solver>
	</Control>
	<Globals>
		<Constants>
			<T>0</T>
			<P>0</P>
			<R>8.31446</R>
			<Fc>96485.3</Fc>
		</Constants>
	</Globals>
	<Material>
		<material id="1" name="Material2" type="GammaMaterial">
			<density>10</density>
			<k>100</k>
			<pressure_model>default</pressure_model>
			<c1>3.176e-10</c1>
			<c2>1.813</c2>
			<c3>2.07</c3>
			<c4>61.44</c4>
			<c5>640.7</c5>
			<lam_max>1.03</lam_max>
			<fiber type="vector">
				<vector>0,0,1</vector>
			</fiber>
			<active_contraction type="GammaContraction">
				<pmax>7.3</pmax>
				<lam_opt>1.2</lam_opt>
				<enable_force_length_relation>1</enable_force_length_relation>
			</active_contraction>
		</material>
	</Material>
	<Mesh>
		<Nodes name="3D_mesh_u2x2x8">
			<node id="1">-1.41421,-1.41421,-7</node>
			<node id="2">0,-2,-7</node>
			<node id="3">1.41421,-1.41421,-7</node>
			<node id="4">-2,0,-7</node>
			<node id="5">0,0,-7</node>
			<node id="6">2,0,-7</node>
			<node id="7">-1.41421,1.41421,-7</node>
			<node id="8">0,2,-7</node>
			<node id="9">1.41421,1.41421,-7</node>
			<node id="10">-1.51777,-1.51777,-5.25</node>
			<node id="11">0,-2.14645,-5.25</node>
			<node id="12">1.51777,-1.51777,-5.25</node>
			<node id="13">-2.14645,0,-5.25</node>
			<node id="14">0,0,-5.25</node>
			<node id="15">2.14645,0,-5.25</node>
			<node id="16">-1.51777,1.51777,-5.25</node>
			<node id="17">0,2.14645,-5.25</node>
			<node id="18">1.51777,1.51777,-5.25</node>
			<node id="19">-1.76777,-1.76777,-3.5</node>
			<node id="20">0,-2.5,-3.5</node>
<!-- ... 61 like lines cut -->
		</Nodes>
		<Elements type="hex8" name="MusclePart">
			<elem id="1">1,2,5,4,10,11,14,13</elem>
			<elem id="2">2,3,6,5,11,12,15,14</elem>
			<elem id="3">4,5,8,7,13,14,17,16</elem>
			<elem id="4">5,6,9,8,14,15,18,17</elem>
			<elem id="5">10,11,14,13,19,20,23,22</elem>
			<elem id="6">11,12,15,14,20,21,24,23</elem>
			<elem id="7">13,14,17,16,22,23,26,25</elem>
			<elem id="8">14,15,18,17,23,24,27,26</elem>
			<elem id="9">19,20,23,22,28,29,32,31</elem>
			<elem id="10">20,21,24,23,29,30,33,32</elem>
			<elem id="11">22,23,26,25,31,32,35,34</elem>
			<elem id="12">23,24,27,26,32,33,36,35</elem>
			<elem id="13">28,29,32,31,37,38,41,40</elem>
			<elem id="14">29,30,33,32,38,39,42,41</elem>
			<elem id="15">31,32,35,34,40,41,44,43</elem>
			<elem id="16">32,33,36,35,41,42,45,44</elem>
			<elem id="17">37,38,41,40,46,47,50,49</elem>
			<elem id="18">38,39,42,41,47,48,51,50</elem>
			<elem id="19">40,41,44,43,49,50,53,52</elem>
			<elem id="20">41,42,45,44,50,51,54,53</elem>
<!-- ... 12 like lines cut -->
		</Elements>
		<Surface name="ZeroDisplacement1">
			<quad4 id="1">4,5,2,1</quad4>
			<quad4 id="2">5,6,3,2</quad4>
			<quad4 id="3">7,8,5,4</quad4>
			<quad4 id="4">8,9,6,5</quad4>
		</Surface>
	</Mesh>
	<MeshDomains>
		<SolidDomain name="MusclePart" mat="Material2"/>
	</MeshDomains>
	<Boundary>
		<bc name="ZeroDisplacement1" node_set="@surface:ZeroDisplacement1" type="zero displacement">
			<x_dof>1</x_dof>
			<y_dof>1</y_dof>
			<z_dof>1</z_dof>
		</bc>
	</Boundary>
	<Output>
		<plotfile type="febio">
			<var type="displacement"/>
			<var type="stress"/>
			<var type="relative volume"/>
		</plotfile>
	</Output>
</febio_spec>
